
OS:Version,
  {5e1ee1ff-8878-4881-a679-69d7bdec232f}, !- Handle
  1.11.0;                                 !- Version Identifier

OS:Site,
  {62d4dfdd-4b17-4f0c-ba08-68c44f96aa09}, !- Handle
  CHICAGO_IL_USA TMY2-94846,              !- Name
  41.78,                                  !- Latitude {deg}
  -87.75,                                 !- Longitude {deg}
  -6,                                     !- Time Zone {hr}
  190,                                    !- Elevation {m}
  Suburbs;                                !- Terrain

OS:SimulationControl,
  {4075b3df-9cca-4fe2-bb20-e37c6dafb827}, !- Handle
  No,                                     !- Do Zone Sizing Calculation
  No,                                     !- Do System Sizing Calculation
  No,                                     !- Do Plant Sizing Calculation
  Yes,                                    !- Run Simulation for Sizing Periods
  Yes,                                    !- Run Simulation for Weather File Run Periods
  0.039999999,                            !- Loads Convergence Tolerance Value
  0.4,                                    !- Temperature Convergence Tolerance Value {deltaC}
  MinimalShadowing,                       !- Solar Distribution
  25,                                     !- Maximum Number of Warmup Days
  6;                                      !- Minimum Number of Warmup Days

OS:Lights:Definition,
  {b4850426-506e-40a5-beba-ee16eb1d5c43}, !- Handle
  NORTH_ZONE Lights Definition,           !- Name
  LightingLevel,                          !- Design Level Calculation Method
  878.6252,                               !- Lighting Level {W}
  ,                                       !- Watts per Space Floor Area {W/m2}
  ,                                       !- Watts per Person {W/person}
  0.2,                                    !- Fraction Radiant
  0.2,                                    !- Fraction Visible
  0;                                      !- Return Air Fraction

OS:Lights,
  {b71f1d78-4589-4f1e-a4f2-4b513e84cef5}, !- Handle
  NORTH_ZONE Lights,                      !- Name
  {b4850426-506e-40a5-beba-ee16eb1d5c43}, !- Lights Definition Name
  {b76385c0-751e-458b-a8e0-b09290d6640c}, !- Space or SpaceType Name
  {15f73d27-d3f8-499f-8362-cf5ddd9fb4e5}, !- Schedule Name
  0,                                      !- Fraction Replaceable
  ,                                       !- Multiplier
  GeneralLights;                          !- End-Use Subcategory

OS:ThermalZone,
  {ec5229bb-c9d8-4347-b99f-e0e2d81f33d1}, !- Handle
  NORTH_ZONE,                             !- Name
  1,                                      !- Multiplier
  ,                                       !- Ceiling Height {m}
  ,                                       !- Volume {m3}
  ,                                       !- Floor Area {m2}
  ,                                       !- Zone Inside Convection Algorithm
  ,                                       !- Zone Outside Convection Algorithm
  ,                                       !- Zone Conditioning Equipment List Name
  {f1466fe4-a511-4e85-b225-b982572fa2f6}, !- Zone Air Inlet Port List
  {b648c4e6-f77e-45c4-8477-ccc65df6cc0d}, !- Zone Air Exhaust Port List
  {590915f3-a7a0-4f2c-ae92-cf94bf645dba}, !- Zone Air Node Name
  ,                                       !- Zone Return Air Node Name
  ,                                       !- Primary Daylighting Control Name
  ,                                       !- Fraction of Zone Controlled by Primary Daylighting Control
  ,                                       !- Secondary Daylighting Control Name
  ,                                       !- Fraction of Zone Controlled by Secondary Daylighting Control
  ,                                       !- Illuminance Map Name
  {25b392bd-c5e5-426a-8006-56416a07a164}, !- Group Rendering Name
  ,                                       !- Thermostat Name
  No;                                     !- Use Ideal Air Loads

OS:Node,
  {e74beb48-4527-4036-96af-8e5b73f82f3a}, !- Handle
  {da0a7dfc-06aa-4afa-bf93-0804accbe75f}, !- Name
  {590915f3-a7a0-4f2c-ae92-cf94bf645dba}, !- Inlet Port
  ;                                       !- Outlet Port

OS:Connection,
  {590915f3-a7a0-4f2c-ae92-cf94bf645dba}, !- Handle
  {b78f4bfb-b846-4dba-9513-8e07190dacb2}, !- Name
  {ec5229bb-c9d8-4347-b99f-e0e2d81f33d1}, !- Source Object
  11,                                     !- Outlet Port
  {e74beb48-4527-4036-96af-8e5b73f82f3a}, !- Target Object
  2;                                      !- Inlet Port

OS:PortList,
  {f1466fe4-a511-4e85-b225-b982572fa2f6}, !- Handle
  {12e52dbe-6ba1-4a59-b61f-5c03779b073d}, !- Name
  {ec5229bb-c9d8-4347-b99f-e0e2d81f33d1}; !- HVAC Component

OS:PortList,
  {b648c4e6-f77e-45c4-8477-ccc65df6cc0d}, !- Handle
  {8fa3e49d-b40f-4a2b-aae5-56b2bc98755a}, !- Name
  {ec5229bb-c9d8-4347-b99f-e0e2d81f33d1}; !- HVAC Component

OS:Sizing:Zone,
  {6a183e57-3ecb-4419-a46c-db08a2d2b25f}, !- Handle
  {ec5229bb-c9d8-4347-b99f-e0e2d81f33d1}, !- Zone or ZoneList Name
  SupplyAirTemperature,                   !- Zone Cooling Design Supply Air Temperature Input Method
  14,                                     !- Zone Cooling Design Supply Air Temperature {C}
  11.11,                                  !- Zone Cooling Design Supply Air Temperature Difference {deltaC}
  SupplyAirTemperature,                   !- Zone Heating Design Supply Air Temperature Input Method
  40,                                     !- Zone Heating Design Supply Air Temperature {C}
  11.11,                                  !- Zone Heating Design Supply Air Temperature Difference {deltaC}
  0.0085,                                 !- Zone Cooling Design Supply Air Humidity Ratio {kg-H2O/kg-air}
  0.008,                                  !- Zone Heating Design Supply Air Humidity Ratio {kg-H2O/kg-air}
  ,                                       !- Zone Heating Sizing Factor
  ,                                       !- Zone Cooling Sizing Factor
  DesignDay,                              !- Cooling Design Air Flow Method
  ,                                       !- Cooling Design Air Flow Rate {m3/s}
  ,                                       !- Cooling Minimum Air Flow per Zone Floor Area {m3/s-m2}
  ,                                       !- Cooling Minimum Air Flow {m3/s}
  ,                                       !- Cooling Minimum Air Flow Fraction
  DesignDay,                              !- Heating Design Air Flow Method
  ,                                       !- Heating Design Air Flow Rate {m3/s}
  ,                                       !- Heating Maximum Air Flow per Zone Floor Area {m3/s-m2}
  ,                                       !- Heating Maximum Air Flow {m3/s}
  ,                                       !- Heating Maximum Air Flow Fraction
  ,                                       !- Design Zone Air Distribution Effectiveness in Cooling Mode
  ,                                       !- Design Zone Air Distribution Effectiveness in Heating Mode
  No,                                     !- Account for Dedicated Outdoor Air System
  NeutralSupplyAir,                       !- Dedicated Outdoor Air System Control Strategy
  autosize,                               !- Dedicated Outdoor Air Low Setpoint Temperature for Design {C}
  autosize;                               !- Dedicated Outdoor Air High Setpoint Temperature for Design {C}

OS:ZoneHVAC:EquipmentList,
  {7ae01785-45d8-4020-82de-984f892514ba}, !- Handle
  {4b75e1e3-b4d6-4c09-b734-3d82d2d1faf7}, !- Name
  {ec5229bb-c9d8-4347-b99f-e0e2d81f33d1}; !- Thermal Zone

OS:Space,
  {b76385c0-751e-458b-a8e0-b09290d6640c}, !- Handle
  NORTH_ZONE Space,                       !- Name
  ,                                       !- Space Type Name
  ,                                       !- Default Construction Set Name
  ,                                       !- Default Schedule Set Name
  0,                                      !- Direction of Relative North {deg}
  0,                                      !- X Origin {m}
  0,                                      !- Y Origin {m}
  0,                                      !- Z Origin {m}
  {91759cae-b061-4ffc-b927-fd301aa48101}, !- Building Story Name
  {ec5229bb-c9d8-4347-b99f-e0e2d81f33d1}; !- Thermal Zone Name

OS:Schedule:Compact,
  {15f73d27-d3f8-499f-8362-cf5ddd9fb4e5}, !- Handle
  OFFICE LIGHTING,                        !- Name
  {80646750-7e2a-4e3b-b38b-6d596559048b}, !- Schedule Type Limits Name
  Through: 12/31,                         !- Field 1
  For: WeekDays,                          !- Field 2
  Until: 6:00,                            !- Field 3
  0.05,                                   !- Field 4
  Until: 7:00,                            !- Field 5
  0.20,                                   !- Field 6
  Until: 17:00,                           !- Field 7
  1.00,                                   !- Field 8
  Until: 18:00,                           !- Field 9
  0.50,                                   !- Field 10
  Until: 24:00,                           !- Field 11
  0.05,                                   !- Field 12
  For: AllOtherDays,                      !- Field 13
  Until: 24:00,                           !- Field 14
  0.05;                                   !- Field 15

OS:ScheduleTypeLimits,
  {80646750-7e2a-4e3b-b38b-6d596559048b}, !- Handle
  Fraction,                               !- Name
  0,                                      !- Lower Limit Value
  1,                                      !- Upper Limit Value
  CONTINUOUS;                             !- Numeric Type

OS:Timestep,
  {e7359610-7472-43da-a533-a2c51e98c2d6}, !- Handle
  6;                                      !- Number of Timesteps per Hour

OS:Surface,
  {677fd919-c486-423f-9450-73940118dd42}, !- Handle
  Surface_5,                              !- Name
  FLOOR,                                  !- Surface Type
  {c53a59f7-32fe-42d0-81e7-7c122615d77c}, !- Construction Name
  {de736ec4-4160-4c72-bfbc-da24557e808b}, !- Space Name
  Adiabatic,                              !- Outside Boundary Condition
  ,                                       !- Outside Boundary Condition Object
  NoSun,                                  !- Sun Exposure
  NoWind,                                 !- Wind Exposure
  1,                                      !- View Factor to Ground
  ,                                       !- Number of Vertices
  6.096, 6.096, 0,                        !- X,Y,Z Vertex 1 {m}
  6.096, 0, 0,                            !- X,Y,Z Vertex 2 {m}
  0, 0, 0,                                !- X,Y,Z Vertex 3 {m}
  0, 6.096, 0;                            !- X,Y,Z Vertex 4 {m}

OS:Construction,
  {c53a59f7-32fe-42d0-81e7-7c122615d77c}, !- Handle
  FLOOR SLAB 8 IN,                        !- Name
  {20b9691e-cf92-4842-9e2f-9240c39d6c99}, !- Surface Rendering Name
  {5317c669-4207-47f7-b861-8aafb225b98f}; !- Layer 1

OS:Material,
  {5317c669-4207-47f7-b861-8aafb225b98f}, !- Handle
  C10 - 8 IN HW CONCRETE,                 !- Name
  MediumRough,                            !- Roughness
  0.2033016,                              !- Thickness {m}
  1.729577,                               !- Conductivity {W/m-K}
  2242.585,                               !- Density {kg/m3}
  836.8,                                  !- Specific Heat {J/kg-K}
  0.9,                                    !- Thermal Absorptance
  0.65,                                   !- Solar Absorptance
  0.65;                                   !- Visible Absorptance

OS:ThermalZone,
  {ea1cef59-0405-4791-9eca-97e2ed8d3a02}, !- Handle
  WEST_ZONE,                              !- Name
  1,                                      !- Multiplier
  ,                                       !- Ceiling Height {m}
  ,                                       !- Volume {m3}
  ,                                       !- Floor Area {m2}
  ,                                       !- Zone Inside Convection Algorithm
  ,                                       !- Zone Outside Convection Algorithm
  ,                                       !- Zone Conditioning Equipment List Name
  {e0688b16-a15f-45ec-8e75-9e2b74fad53f}, !- Zone Air Inlet Port List
  {e11fe286-2718-47fb-a339-a1eab5f881f5}, !- Zone Air Exhaust Port List
  {a007b62b-dcba-4b43-ad1d-5c55e7aae945}, !- Zone Air Node Name
  ,                                       !- Zone Return Air Node Name
  ,                                       !- Primary Daylighting Control Name
  ,                                       !- Fraction of Zone Controlled by Primary Daylighting Control
  ,                                       !- Secondary Daylighting Control Name
  ,                                       !- Fraction of Zone Controlled by Secondary Daylighting Control
  ,                                       !- Illuminance Map Name
  {c5e9a92e-900b-470c-acf1-ac9e79f4d05e}, !- Group Rendering Name
  ,                                       !- Thermostat Name
  No;                                     !- Use Ideal Air Loads

OS:Node,
  {2141f2de-41a2-4ca2-abc4-e57b2b01fb2d}, !- Handle
  {4fe385fb-e1f7-40df-94c0-3e4ee335433e}, !- Name
  {a007b62b-dcba-4b43-ad1d-5c55e7aae945}, !- Inlet Port
  ;                                       !- Outlet Port

OS:Connection,
  {a007b62b-dcba-4b43-ad1d-5c55e7aae945}, !- Handle
  {7fab3d90-bcec-4e56-b7df-4a54e602909b}, !- Name
  {ea1cef59-0405-4791-9eca-97e2ed8d3a02}, !- Source Object
  11,                                     !- Outlet Port
  {2141f2de-41a2-4ca2-abc4-e57b2b01fb2d}, !- Target Object
  2;                                      !- Inlet Port

OS:PortList,
  {e0688b16-a15f-45ec-8e75-9e2b74fad53f}, !- Handle
  {d5da18a5-993c-4b15-993b-a33c5b90b2eb}, !- Name
  {ea1cef59-0405-4791-9eca-97e2ed8d3a02}; !- HVAC Component

OS:PortList,
  {e11fe286-2718-47fb-a339-a1eab5f881f5}, !- Handle
  {8f11bdb0-a77e-4c58-93bb-b49ee8b4c356}, !- Name
  {ea1cef59-0405-4791-9eca-97e2ed8d3a02}; !- HVAC Component

OS:Sizing:Zone,
  {174107df-287b-4554-83b5-6d14e966b522}, !- Handle
  {ea1cef59-0405-4791-9eca-97e2ed8d3a02}, !- Zone or ZoneList Name
  SupplyAirTemperature,                   !- Zone Cooling Design Supply Air Temperature Input Method
  14,                                     !- Zone Cooling Design Supply Air Temperature {C}
  11.11,                                  !- Zone Cooling Design Supply Air Temperature Difference {deltaC}
  SupplyAirTemperature,                   !- Zone Heating Design Supply Air Temperature Input Method
  40,                                     !- Zone Heating Design Supply Air Temperature {C}
  11.11,                                  !- Zone Heating Design Supply Air Temperature Difference {deltaC}
  0.0085,                                 !- Zone Cooling Design Supply Air Humidity Ratio {kg-H2O/kg-air}
  0.008,                                  !- Zone Heating Design Supply Air Humidity Ratio {kg-H2O/kg-air}
  ,                                       !- Zone Heating Sizing Factor
  ,                                       !- Zone Cooling Sizing Factor
  DesignDay,                              !- Cooling Design Air Flow Method
  ,                                       !- Cooling Design Air Flow Rate {m3/s}
  ,                                       !- Cooling Minimum Air Flow per Zone Floor Area {m3/s-m2}
  ,                                       !- Cooling Minimum Air Flow {m3/s}
  ,                                       !- Cooling Minimum Air Flow Fraction
  DesignDay,                              !- Heating Design Air Flow Method
  ,                                       !- Heating Design Air Flow Rate {m3/s}
  ,                                       !- Heating Maximum Air Flow per Zone Floor Area {m3/s-m2}
  ,                                       !- Heating Maximum Air Flow {m3/s}
  ,                                       !- Heating Maximum Air Flow Fraction
  ,                                       !- Design Zone Air Distribution Effectiveness in Cooling Mode
  ,                                       !- Design Zone Air Distribution Effectiveness in Heating Mode
  No,                                     !- Account for Dedicated Outdoor Air System
  NeutralSupplyAir,                       !- Dedicated Outdoor Air System Control Strategy
  autosize,                               !- Dedicated Outdoor Air Low Setpoint Temperature for Design {C}
  autosize;                               !- Dedicated Outdoor Air High Setpoint Temperature for Design {C}

OS:ZoneHVAC:EquipmentList,
  {0ce9fffa-6c63-4e60-b18d-3f6c72b8baae}, !- Handle
  {5d6c355b-37d5-4b7e-b3e8-367d0716fc3a}, !- Name
  {ea1cef59-0405-4791-9eca-97e2ed8d3a02}; !- Thermal Zone

OS:Space,
  {de736ec4-4160-4c72-bfbc-da24557e808b}, !- Handle
  WEST_ZONE Space,                        !- Name
  ,                                       !- Space Type Name
  ,                                       !- Default Construction Set Name
  ,                                       !- Default Schedule Set Name
  0,                                      !- Direction of Relative North {deg}
  0,                                      !- X Origin {m}
  0,                                      !- Y Origin {m}
  0,                                      !- Z Origin {m}
  {91759cae-b061-4ffc-b927-fd301aa48101}, !- Building Story Name
  {ea1cef59-0405-4791-9eca-97e2ed8d3a02}; !- Thermal Zone Name

OS:Schedule:Compact,
  {75d28aa8-4c93-4400-ab9a-827813e2b15b}, !- Handle
  INTERMITTENT,                           !- Name
  {80646750-7e2a-4e3b-b38b-6d596559048b}, !- Schedule Type Limits Name
  Through: 12/31,                         !- Field 1
  For: WeekDays,                          !- Field 2
  Until: 8:00,                            !- Field 3
  0.0,                                    !- Field 4
  Until: 18:00,                           !- Field 5
  1.00,                                   !- Field 6
  Until: 24:00,                           !- Field 7
  0.0,                                    !- Field 8
  For: AllOtherDays,                      !- Field 9
  Until: 24:00,                           !- Field 10
  0.0;                                    !- Field 11

OS:Material,
  {eb082514-5a40-47eb-960b-e8132f045724}, !- Handle
  B5 - 1 IN DENSE INSULATION,             !- Name
  VeryRough,                              !- Roughness
  0.025389841,                            !- Thickness {m}
  0.04323943,                             !- Conductivity {W/m-K}
  91.30524,                               !- Density {kg/m3}
  836.8,                                  !- Specific Heat {J/kg-K}
  0.9,                                    !- Thermal Absorptance
  0.5,                                    !- Solar Absorptance
  0.5;                                    !- Visible Absorptance

OS:Surface,
  {3b7aa624-8c7e-4261-a9d9-87fb17c1d3f8}, !- Handle
  Surface_12,                             !- Name
  FLOOR,                                  !- Surface Type
  {c53a59f7-32fe-42d0-81e7-7c122615d77c}, !- Construction Name
  {8aacddd5-f854-4aa6-bbaf-e6c935b86c7e}, !- Space Name
  Adiabatic,                              !- Outside Boundary Condition
  ,                                       !- Outside Boundary Condition Object
  NoSun,                                  !- Sun Exposure
  NoWind,                                 !- Wind Exposure
  1,                                      !- View Factor to Ground
  ,                                       !- Number of Vertices
  12.192, 6.096, 0,                       !- X,Y,Z Vertex 1 {m}
  12.192, 0, 0,                           !- X,Y,Z Vertex 2 {m}
  6.096, 0, 0,                            !- X,Y,Z Vertex 3 {m}
  6.096, 6.096, 0;                        !- X,Y,Z Vertex 4 {m}

OS:ThermalZone,
  {c047f4d5-473b-4ac5-af68-9757b9441176}, !- Handle
  EAST_ZONE,                              !- Name
  1,                                      !- Multiplier
  ,                                       !- Ceiling Height {m}
  ,                                       !- Volume {m3}
  ,                                       !- Floor Area {m2}
  ,                                       !- Zone Inside Convection Algorithm
  ,                                       !- Zone Outside Convection Algorithm
  ,                                       !- Zone Conditioning Equipment List Name
  {7ff553a4-c393-4763-89a2-84fe98f76620}, !- Zone Air Inlet Port List
  {1a4a494d-07a1-4c42-b636-af04d7229e6c}, !- Zone Air Exhaust Port List
  {e55c1492-1357-41a2-8922-304f0b741966}, !- Zone Air Node Name
  ,                                       !- Zone Return Air Node Name
  ,                                       !- Primary Daylighting Control Name
  ,                                       !- Fraction of Zone Controlled by Primary Daylighting Control
  ,                                       !- Secondary Daylighting Control Name
  ,                                       !- Fraction of Zone Controlled by Secondary Daylighting Control
  ,                                       !- Illuminance Map Name
  {6acb851c-82e1-4b33-9ed3-01eccdaecff8}, !- Group Rendering Name
  ,                                       !- Thermostat Name
  No;                                     !- Use Ideal Air Loads

OS:Node,
  {3640854a-bfe0-48e6-8be0-6f940eacff37}, !- Handle
  {da1066c7-f5fe-402c-87d1-0816f1b0d376}, !- Name
  {e55c1492-1357-41a2-8922-304f0b741966}, !- Inlet Port
  ;                                       !- Outlet Port

OS:Connection,
  {e55c1492-1357-41a2-8922-304f0b741966}, !- Handle
  {08573439-d603-49e4-867b-5aa92fdf7294}, !- Name
  {c047f4d5-473b-4ac5-af68-9757b9441176}, !- Source Object
  11,                                     !- Outlet Port
  {3640854a-bfe0-48e6-8be0-6f940eacff37}, !- Target Object
  2;                                      !- Inlet Port

OS:PortList,
  {7ff553a4-c393-4763-89a2-84fe98f76620}, !- Handle
  {2af9d30b-cc13-4bae-91a6-aaa6e50d45fa}, !- Name
  {c047f4d5-473b-4ac5-af68-9757b9441176}; !- HVAC Component

OS:PortList,
  {1a4a494d-07a1-4c42-b636-af04d7229e6c}, !- Handle
  {8ca6b30d-3184-410d-a05a-50d229775c72}, !- Name
  {c047f4d5-473b-4ac5-af68-9757b9441176}; !- HVAC Component

OS:Sizing:Zone,
  {2d850095-af5e-41f2-87b3-9ac0d7297328}, !- Handle
  {c047f4d5-473b-4ac5-af68-9757b9441176}, !- Zone or ZoneList Name
  SupplyAirTemperature,                   !- Zone Cooling Design Supply Air Temperature Input Method
  14,                                     !- Zone Cooling Design Supply Air Temperature {C}
  11.11,                                  !- Zone Cooling Design Supply Air Temperature Difference {deltaC}
  SupplyAirTemperature,                   !- Zone Heating Design Supply Air Temperature Input Method
  40,                                     !- Zone Heating Design Supply Air Temperature {C}
  11.11,                                  !- Zone Heating Design Supply Air Temperature Difference {deltaC}
  0.0085,                                 !- Zone Cooling Design Supply Air Humidity Ratio {kg-H2O/kg-air}
  0.008,                                  !- Zone Heating Design Supply Air Humidity Ratio {kg-H2O/kg-air}
  ,                                       !- Zone Heating Sizing Factor
  ,                                       !- Zone Cooling Sizing Factor
  DesignDay,                              !- Cooling Design Air Flow Method
  ,                                       !- Cooling Design Air Flow Rate {m3/s}
  ,                                       !- Cooling Minimum Air Flow per Zone Floor Area {m3/s-m2}
  ,                                       !- Cooling Minimum Air Flow {m3/s}
  ,                                       !- Cooling Minimum Air Flow Fraction
  DesignDay,                              !- Heating Design Air Flow Method
  ,                                       !- Heating Design Air Flow Rate {m3/s}
  ,                                       !- Heating Maximum Air Flow per Zone Floor Area {m3/s-m2}
  ,                                       !- Heating Maximum Air Flow {m3/s}
  ,                                       !- Heating Maximum Air Flow Fraction
  ,                                       !- Design Zone Air Distribution Effectiveness in Cooling Mode
  ,                                       !- Design Zone Air Distribution Effectiveness in Heating Mode
  No,                                     !- Account for Dedicated Outdoor Air System
  NeutralSupplyAir,                       !- Dedicated Outdoor Air System Control Strategy
  autosize,                               !- Dedicated Outdoor Air Low Setpoint Temperature for Design {C}
  autosize;                               !- Dedicated Outdoor Air High Setpoint Temperature for Design {C}

OS:ZoneHVAC:EquipmentList,
  {87664f28-f479-43db-b7dc-f42b138eeb07}, !- Handle
  {821b321f-2e69-4a64-b4d5-27d12ae304bb}, !- Name
  {c047f4d5-473b-4ac5-af68-9757b9441176}; !- Thermal Zone

OS:Space,
  {8aacddd5-f854-4aa6-bbaf-e6c935b86c7e}, !- Handle
  EAST_ZONE Space,                        !- Name
  ,                                       !- Space Type Name
  ,                                       !- Default Construction Set Name
  ,                                       !- Default Schedule Set Name
  0,                                      !- Direction of Relative North {deg}
  0,                                      !- X Origin {m}
  0,                                      !- Y Origin {m}
  0,                                      !- Z Origin {m}
  {91759cae-b061-4ffc-b927-fd301aa48101}, !- Building Story Name
  {c047f4d5-473b-4ac5-af68-9757b9441176}; !- Thermal Zone Name

OS:Output:Variable,
  {8a958dfa-876f-4918-bca4-240cfbb82ad7}, !- Handle
  {5be01ee7-68dd-48a2-a8f9-94465e498bb0}, !- Name
  *,                                      !- Key Value
  Site Wind Direction,                    !- Variable Name
  timestep;                               !- Reporting Frequency

OS:Output:Variable,
  {828c8ff5-3dca-42e7-bbe3-e3e750fb022e}, !- Handle
  {fa032135-c192-41dd-8c07-862a7de6129c}, !- Name
  Window2,                                !- Key Value
  AFN Linkage Node 2 to Node 1 Volume Flow Rate, !- Variable Name
  timestep;                               !- Reporting Frequency

OS:Output:Variable,
  {36e92fc7-edab-4c91-9ae9-274408c02a58}, !- Handle
  {4d1d08f0-9bab-43a7-82c1-d6e86c774b7c}, !- Name
  Window1,                                !- Key Value
  AFN Surface Venting Window or Door Opening Factor, !- Variable Name
  timestep;                               !- Reporting Frequency

OS:Material,
  {cbbf4327-f81c-47aa-83ca-bea59069ce67}, !- Handle
  C12 - 2 IN HW CONCRETE,                 !- Name
  MediumRough,                            !- Roughness
  0.050901599,                            !- Thickness {m}
  1.729577,                               !- Conductivity {W/m-K}
  2242.585,                               !- Density {kg/m3}
  836.8,                                  !- Specific Heat {J/kg-K}
  0.9,                                    !- Thermal Absorptance
  0.65,                                   !- Solar Absorptance
  0.65;                                   !- Visible Absorptance

OS:Output:Variable,
  {72fb3265-a430-4ce0-a001-c58b77b153fa}, !- Handle
  {7139d423-ee10-4177-a950-b9232d58eb0f}, !- Name
  DoorInSurface_3,                        !- Key Value
  AFN Linkage Node 1 to Node 2 Volume Flow Rate, !- Variable Name
  timestep;                               !- Reporting Frequency

OS:People:Definition,
  {f6187f2a-ae0e-40be-9dbd-ac800da1c214}, !- Handle
  EAST_ZONE People Definition,            !- Name
  People,                                 !- Number of People Calculation Method
  3,                                      !- Number of People {people}
  ,                                       !- People per Space Floor Area {person/m2}
  ,                                       !- Space Floor Area per Person {m2/person}
  0.3,                                    !- Fraction Radiant
  ,                                       !- Sensible Heat Fraction
  3.82e-008,                              !- Carbon Dioxide Generation Rate {m3/s-W}
  No,                                     !- Enable ASHRAE 55 Comfort Warnings
  zoneaveraged,                           !- Mean Radiant Temperature Calculation Type
  FANGER;                                 !- Thermal Comfort Model Type 1

OS:People,
  {d1512d9e-127b-4d1d-b9e5-7dcc7a9780a1}, !- Handle
  EAST_ZONE People,                       !- Name
  {f6187f2a-ae0e-40be-9dbd-ac800da1c214}, !- People Definition Name
  {8aacddd5-f854-4aa6-bbaf-e6c935b86c7e}, !- Space or SpaceType Name
  {67dfcedf-4e25-4e0d-a8c9-9d237f6fe9bb}, !- Number of People Schedule Name
  {92f19757-0026-48c3-9cfe-0943fddca3da}, !- Activity Level Schedule Name
  ,                                       !- Surface Name/Angle Factor List Name
  {291bbf7a-9004-422d-beac-603745a29748}, !- Work Efficiency Schedule Name
  {19a75743-6b46-4bce-a9f1-863c0f24cfb9}, !- Clothing Insulation Schedule Name
  {f2d1a000-149b-42ee-8f3d-7e4c5cbe54a2}; !- Air Velocity Schedule Name

OS:Schedule:Compact,
  {67dfcedf-4e25-4e0d-a8c9-9d237f6fe9bb}, !- Handle
  OFFICE OCCUPANCY,                       !- Name
  {80646750-7e2a-4e3b-b38b-6d596559048b}, !- Schedule Type Limits Name
  Through: 12/31,                         !- Field 1
  For: WeekDays,                          !- Field 2
  Until: 6:00,                            !- Field 3
  0.0,                                    !- Field 4
  Until: 7:00,                            !- Field 5
  0.10,                                   !- Field 6
  Until: 8:00,                            !- Field 7
  0.50,                                   !- Field 8
  Until: 12:00,                           !- Field 9
  1.00,                                   !- Field 10
  Until: 13:00,                           !- Field 11
  0.50,                                   !- Field 12
  Until: 16:00,                           !- Field 13
  1.00,                                   !- Field 14